Circuit: * D:\Rahul-College\Elektronica\PCB\ADC_DAC_Converter\DAC_Simulation - LTSpice.asc

Direct Newton iteration for .op point succeeded.

Date: Tue Jul  2 16:48:28 2024
Total elapsed time: 0.397 seconds.

tnom = 27
temp = 27
method = modified trap
totiter = 10840
traniter = 10807
tranpoints = 4663
accept = 3657
rejected = 1006
matrix size = 17
fillins = 6
solver = Normal
Avg thread counts: 1.5/2.2/2.2/1.5
Matrix Compiler1: 1.68 KB object code size  0.9/0.5/[0.4]
Matrix Compiler2: off  [0.4]/1.0/0.8

